pglib-opf-master/sad/pglib_opf_case240_pserc__sad.m
%%%%%%%%%%%%%%%%%%%%%%%%%%%%%%%%%%%%%%%%%%%%%%%%%%%%%%%%%%%%%%%%%%%%%%%%%%%
%%%%                                                                  %%%%%
%%%%    IEEE PES Power Grid Library - Optimal Power Flow - v20.07     %%%%%
%%%%          (https://github.com/power-grid-lib/pglib-opf)           %%%%%
%%%%             Benchmark Group - Small Angle Difference             %%%%%
%%%%                         12 - July - 2020                         %%%%%
%%%%                                                                  %%%%%
%%%%%%%%%%%%%%%%%%%%%%%%%%%%%%%%%%%%%%%%%%%%%%%%%%%%%%%%%%%%%%%%%%%%%%%%%%%
function mpc = pglib_opf_case240_pserc__sad
mpc.version = '2';
mpc.baseMVA = 100.0;

%% bus data
%	bus_i	type	Pd	Qd	Gs	Bs	area	Vm	Va	baseKV	zone	Vmax	Vmin
mpc.bus = [
	1001	 1	 0.0	 0.0	 0.0	 0.0	 10	    1.00000	    0.00000	 500.0	 1	    1.10000	    0.90000;
	1002	 1	 226.8419	 -37.472	 0.0	 0.0	 10	    1.00000	    0.00000	 345.0	 1	    1.10000	    0.90000;
	1003	 1	 2153.3224	 366.856	 0.0	 0.0	 10	    1.00000	    0.00000	 230.0	 1	    1.10000	    0.90000;
	1004	 1	 1037.9499	 5.521	 0.0	 0.0	 10	    1.00000	    0.00000	 345.0	 1	    1.10000	    0.90000;
	1032	 2	 0.0	 0.0	 0.0	 0.0	 10	    1.00000	    0.00000	 20.0	 1	    1.10000	    0.90000;
	1034	 2	 0.0	 0.0	 0.0	 0.0	 10	    1.00000	    0.00000	 20.0	 1	    1.10000	    0.90000;
	1101	 1	 4527.3661	 -137.044	 0.0	 0.0	 10	    1.00000	    0.00000	 500.0	 1	    1.10000	    0.90000;
	1102	 1	 176.4436	 23.004	 0.0	 0.0	 10	    1.00000	    0.00000	 345.0	 1	    1.10000	    0.90000;
	1131	 2	 0.0	 0.0	 0.0	 0.0	 10	    1.00000	    0.00000	 20.0	 1	    1.10000	    0.90000;
	1201	 1	 166.9882	 -2.012	 0.0	 0.0	 10	    1.00000	    0.00000	 500.0	 1	    1.10000	    0.90000;
	1202	 1	 875.61	 287.131	 0.0	 0.0	 10	    1.00000	    0.00000	 500.0	 1	    1.10000	    0.90000;
	1232	 2	 0.0	 0.0	 0.0	 0.0	 10	    1.00000	    0.00000	 20.0	 1	    1.10000	    0.90000;
	1301	 1	 2704.7793	 352.826	 0.0	 0.0	 10	    1.00000	    0.00000	 500.0	 1	    1.10000	    0.90000;
	1302	 1	 17.5556	 2.304	 0.0	 0.0	 10	    1.00000	    0.00000	 500.0	 1	    1.10000	    0.90000;
	1303	 1	 6235.136	 813.349	 0.0	 0.0	 10	    1.00000	    0.00000	 345.0	 1	    1.10000	    0.90000;
	1331	 2	 0.0	 0.0	 0.0	 0.0	 10	    1.00000	    0.00000	 20.0	 1	    1.10000	    0.90000;
	1333	 2	 0.0	 0.0	 0.0	 0.0	 10	    1.00000	    0.00000	 20.0	 1	    1.10000	    0.90000;
	1401	 1	 6535.5365	 1524.594	 0.0	 0.0	 10	    1.00000	    0.00000	 500.0	 1	    1.10000	    0.90000;
	1402	 1	 5366.6305	 -600.162	 0.0	 0.0	 10	    1.00000	    0.00000	 500.0	 1	    1.10000	    0.90000;
	1403	 1	 0.0	 0.0	 0.0	 0.0	 10	    1.00000	    0.00000	 230.0	 1	    1.10000	    0.90000;
	1431	 2	 0.0	 0.0	 0.0	 0.0	 10	    1.00000	    0.00000	 20.0	 1	    1.10000	    0.90000;
	2000	 1	 2207.188	 287.916	 0.0	 0.0	 20	    1.00000	    0.00000	 230.0	 1	    1.10000	    0.90000;
	2030	 2	 0.0	 0.0	 0.0	 0.0	 20	    1.00000	    0.00000	 20.0	 1	    1.10000	    0.90000;
	2100	 1	 281.1513	 54.83	 0.0	 0.0	 21	    1.00000	    0.00000	 230.0	 1	    1.10000	    0.90000;
	2130	 2	 0.0	 0.0	 0.0	 0.0	 21	    1.00000	    0.00000	 20.0	 1	    1.10000	    0.90000;
	2201	 1	 0.0	 0.0	 0.0	 0.0	 22	    1.00000	    0.00000	 500.0	 1	    1.10000	    0.90000;
	2202	 1	 1545.949	 268.565	 0.0	 0.0	 22	    1.00000	    0.00000	 230.0	 1	    1.10000	    0.90000;
	2203	 1	 1708.5525	 278.273	 0.0	 0.0	 22	    1.00000	    0.00000	 230.0	 1	    1.10000	    0.90000;
	2233	 2	 0.0	 0.0	 0.0	 0.0	 22	    1.00000	    0.00000	 20.0	 1	    1.10000	    0.90000;
	2301	 1	 0.0	 0.0	 0.0	 0.0	 22	    1.00000	    0.00000	 500.0	 1	    1.10000	    0.90000;
	2302	 1	 0.0	 0.0	 0.0	 0.0	 22	    1.00000	    0.00000	 230.0	 1	    1.10000	    0.90000;
	2332	 2	 0.0	 0.0	 0.0	 0.0	 22	    1.00000	    0.00000	 20.0	 1	    1.10000	    0.90000;
	2400	 1	 843.2926	 76.663	 0.0	 0.0	 24	    1.00000	    0.00000	 500.0	 1	    1.10000	    0.90000;
	2401	 1	 882.3636	 105.214	 0.0	 0.0	 24	    1.00000	    0.00000	 500.0	 1	    1.10000	    0.90000;
	2402	 1	 1080.0201	 81.979	 0.0	 0.0	 24	    1.00000	    0.00000	 500.0	 1	    1.10000	    0.90000;
	2403	 1	 1050.004	 38.543	 0.0	 0.0	 24	    1.00000	    0.00000	 500.0	 1	    1.10000	    0.90000;
	2404	 1	 0.0	 0.0	 0.0	 0.0	 24	    1.00000	    0.00000	 500.0	 1	    1.10000	    0.90000;
	2405	 1	 824.6826	 22.901	 0.0	 0.0	 24	    1.00000	    0.00000	 230.0	 1	    1.10000	    0.90000;
	2406	 1	 737.4036	 -40.751	 0.0	 0.0	 24	    1.00000	    0.00000	 230.0	 1	    1.10000	    0.90000;
	2407	 1	 1732.771	 -36.535	 0.0	 0.0	 24	    1.00000	    0.00000	 230.0	 1	    1.10000	    0.90000;
	2408	 1	 1743.2768	 -72.623	 0.0	 0.0	 24	    1.00000	    0.00000	 230.0	 1	    1.10000	    0.90000;
	2409	 1	 1601.7777	 -86.698	 0.0	 0.0	 24	    1.00000	    0.00000	 230.0	 1	    1.10000	    0.90000;
	2410	 1	 1576.7872	 58.184	 0.0	 0.0	 24	    1.00000	    0.00000	 230.0	 1	    1.10000	    0.90000;
	2411	 1	 1087.6239	 75.955	 0.0	 0.0	 24	    1.00000	    0.00000	 230.0	 1	    1.10000	    0.90000;
	2438	 2	 0.0	 0.0	 0.0	 0.0	 24	    1.00000	    0.00000	 20.0	 1	    1.10000	    0.90000;
	2501	 1	 0.0	 0.0	 0.0	 0.0	 25	    1.00000	    0.00000	 500.0	 1	    1.10000	    0.90000;
	2502	 1	 2369.1531	 -91.905	 0.0	 0.0	 25	    1.00000	    0.00000	 230.0	 1	    1.10000	    0.90000;
	2503	 1	 1845.9256	 201.991	 0.0	 0.0	 25	    1.00000	    0.00000	 230.0	 1	    1.10000	    0.90000;
	2533	 2	 0.0	 0.0	 0.0	 0.0	 25	    1.00000	    0.00000	 20.0	 1	    1.10000	    0.90000;
	2600	 1	 -1863.9044	 0.0	 0.0	 0.0	 90	    1.00000	    0.00000	 500.0	 1	    1.10000	    0.90000;
	2601	 1	 0.0	 0.0	 0.0	 0.0	 26	    1.00000	    0.00000	 500.0	 1	    1.10000	    0.90000;
	2602	 1	 99.2784	 12.955	 0.0	 0.0	 26	    1.00000	    0.00000	 500.0	 1	    1.10000	    0.90000;
	2603	 1	 0.0	 0.0	 0.0	 0.0	 26	    1.00000	    0.00000	 500.0	 1	    1.10000	    0.90000;
	2604	 1	 2050.7816	 0.0	 0.0	 0.0	 90	    1.00000	    0.00000	 345.0	 1	    1.10000	    0.90000;
	2605	 1	 0.0	 0.0	 0.0	 0.0	 26	    1.00000	    0.00000	 287.0	 1	    1.10000	    0.90000;
	2606	 1	 0.0	 0.0	 0.0	 0.0	 26	    1.00000	    0.00000	 287.0	 1	    1.10000	    0.90000;
	2607	 1	 0.0	 0.0	 0.0	 0.0	 26	    1.00000	    0.00000	 287.0	 1	    1.10000	    0.90000;
	2608	 1	 99.2784	 12.955	 0.0	 0.0	 26	    1.00000	    0.00000	 230.0	 1	    1.10000	    0.90000;
	2609	 1	 134.0261	 26.805	 0.0	 0.0	 26	    1.00000	    0.00000	 230.0	 1	    1.10000	    0.90000;
	2610	 1	 99.2784	 12.955	 0.0	 0.0	 26	    1.00000	    0.00000	 230.0	 1	    1.10000	    0.90000;
	2611	 1	 99.2784	 12.955	 0.0	 0.0	 26	    1.00000	    0.00000	 230.0	 1	    1.10000	    0.90000;
	2612	 1	 120.1277	 24.819	 0.0	 0.0	 26	    1.00000	    0.00000	 230.0	 1	    1.10000	    0.90000;
	2613	 1	 317.693	 64.532	 0.0	 0.0	 26	    1.00000	    0.00000	 230.0	 1	    1.10000	    0.90000;
	2614	 1	 137.0047	 27.798	 0.0	 0.0	 26	    1.00000	    0.00000	 230.0	 1	    1.10000	    0.90000;
	2615	 1	 801.9756	 131.148	 0.0	 0.0	 26	    1.00000	    0.00000	 230.0	 1	    1.10000	    0.90000;
	2616	 1	 116.1565	 23.827	 0.0	 0.0	 26	    1.00000	    0.00000	 230.0	 1	    1.10000	    0.90000;
	2617	 1	 120.1277	 24.819	 0.0	 0.0	 26	    1.00000	    0.00000	 230.0	 1	    1.10000	    0.90000;
	2618	 1	 881.2994	 -6.155	 0.0	 0.0	 26	    1.00000	    0.00000	 230.0	 1	    1.10000	    0.90000;
	2619	 1	 -2773.8339	 0.0	 0.0	 0.0	 90	    1.00000	    0.00000	 230.0	 1	    1.10000	    0.90000;
	2620	 1	 203.7206	 17.473	 0.0	 0.0	 26	    1.00000	    0.00000	 230.0	 1	    1.10000	    0.90000;
	2621	 1	 235.4897	 -62.745	 0.0	 0.0	 26	    1.00000	    0.00000	 138.0	 1	    1.10000	    0.90000;
	2630	 2	 0.0	 0.0	 0.0	 0.0	 26	    1.00000	    0.00000	 20.0	 1	    1.10000	    0.90000;
	2631	 2	 0.0	 0.0	 0.0	 0.0	 26	    1.00000	    0.00000	 20.0	 1	    1.10000	    0.90000;
	2634	 2	 0.0	 0.0	 0.0	 0.0	 90	    1.00000	    0.00000	 20.0	 1	    1.10000	    0.90000;
	2637	 2	 0.0	 0.0	 0.0	 0.0	 26	    1.00000	    0.00000	 20.0	 1	    1.10000	    0.90000;
	2638	 2	 0.0	 0.0	 0.0	 0.0	 26	    1.00000	    0.00000	 20.0	 1	    1.10000	    0.90000;
	2901	 1	 0.0	 0.0	 0.0	 0.0	 24	    1.00000	    0.00000	 500.0	 1	    1.10000	    0.90000;
	2902	 1	 0.0	 0.0	 0.0	 0.0	 24	    1.00000	    0.00000	 500.0	 1	    1.10000	    0.90000;
	3101	 1	 341.3057	 52.828	 0.0	 0.0	 31	    1.00000	    0.00000	 230.0	 1	    1.10000	    0.90000;
	3102	 1	 159.4648	 24.929	 0.0	 0.0	 31	    1.00000	    0.00000	 230.0	 1	    1.10000	    0.90000;
	3103	 1	 419.6109	 59.777	 0.0	 0.0	 32	    1.00000	    0.00000	 230.0	 1	    1.10000	    0.90000;
	3104	 1	 309.9718	 40.133	 0.0	 0.0	 31	    1.00000	    0.00000	 115.0	 1	    1.10000	    0.90000;
	3105	 1	 239.3018	 49.091	 0.0	 0.0	 31	    1.00000	    0.00000	 115.0	 1	    1.10000	    0.90000;
	3133	 2	 0.0	 0.0	 0.0	 0.0	 32	    1.00000	    0.00000	 20.0	 1	    1.10000	    0.90000;
	3135	 2	 0.0	 0.0	 0.0	 0.0	 31	    1.00000	    0.00000	 20.0	 1	    1.10000	    0.90000;
	3201	 1	 462.4769	 97.849	 0.0	 0.0	 32	    1.00000	    0.00000	 230.0	 1	    1.10000	    0.90000;
	3202	 1	 586.1795	 83.473	 0.0	 0.0	 32	    1.00000	    0.00000	 230.0	 1	    1.10000	    0.90000;
	3203	 1	 657.1046	 158.476	 0.0	 0.0	 32	    1.00000	    0.00000	 230.0	 1	    1.10000	    0.90000;
	3204	 1	 668.7879	 95.313	 0.0	 0.0	 32	    1.00000	    0.00000	 230.0	 1	    1.10000	    0.90000;
	3205	 1	 546.0609	 77.782	 0.0	 0.0	 32	    1.00000	    0.00000	 230.0	 1	    1.10000	    0.90000;
	3234	 2	 0.0	 0.0	 0.0	 0.0	 32	    1.00000	    0.00000	 20.0	 1	    1.10000	    0.90000;
	3301	 1	 0.0	 0.0	 0.0	 0.0	 32	    1.00000	    0.00000	 500.0	 1	    1.10000	    0.90000;
	3302	 1	 345.3259	 85.791	 0.0	 0.0	 32	    1.00000	    0.00000	 230.0	 1	    1.10000	    0.90000;
	3303	 1	 625.4106	 150.715	 0.0	 0.0	 32	    1.00000	    0.00000	 230.0	 1	    1.10000	    0.90000;
	3304	 1	 533.4822	 122.616	 0.0	 0.0	 32	    1.00000	    0.00000	 230.0	 1	    1.10000	    0.90000;
	3305	 1	 430.3196	 61.225	 0.0	 0.0	 32	    1.00000	    0.00000	 230.0	 1	    1.10000	    0.90000;
	3333	 2	 0.0	 0.0	 0.0	 0.0	 32	    1.00000	    0.00000	 20.0	 1	    1.10000	    0.90000;
	3401	 1	 557.7071	 135.909	 0.0	 0.0	 34	    1.00000	    0.00000	 230.0	 1	    1.10000	    0.90000;
	3402	 1	 0.0	 0.0	 0.0	 0.0	 34	    1.00000	    0.00000	 230.0	 1	    1.10000	    0.90000;
	3403	 1	 515.9687	 73.583	 0.0	 0.0	 34	    1.00000	    0.00000	 230.0	 1	    1.10000	    0.90000;
	3404	 1	 438.461	 62.075	 0.0	 0.0	 34	    1.00000	    0.00000	 230.0	 1	    1.10000	    0.90000;
	3405	 1	 448.8976	 63.723	 0.0	 0.0	 34	    1.00000	    0.00000	 230.0	 1	    1.10000	    0.90000;
	3432	 2	 0.0	 0.0	 0.0	 0.0	 34	    1.00000	    0.00000	 20.0	 1	    1.10000	    0.90000;
	3433	 2	 0.0	 0.0	 0.0	 0.0	 34	    1.00000	    0.00000	 20.0	 1	    1.10000	    0.90000;
	3501	 1	 625.0164	 89.015	 0.0	 0.0	 35	    1.00000	    0.00000	 230.0	 1	    1.10000	    0.90000;
	3531	 2	 0.0	 0.0	 0.0	 0.0	 35	    1.00000	    0.00000	 20.0	 1	    1.10000	    0.90000;
	3601	 1	 104.8564	 14.844	 0.0	 0.0	 36	    1.00000	    0.00000	 115.0	 1	    1.10000	    0.90000;
	3631	 2	 0.0	 0.0	 0.0	 0.0	 36	    1.00000	    0.00000	 20.0	 1	    1.10000	    0.90000;
	3701	 1	 317.0506	 15.847	 0.0	 0.0	 37	    1.00000	    0.00000	 115.0	 1	    1.10000	    0.90000;
	3731	 2	 0.0	 0.0	 0.0	 0.0	 37	    1.00000	    0.00000	 20.0	 1	    1.10000	    0.90000;
	3801	 1	 191.2229	 47.411	 0.0	 0.0	 38	    1.00000	    0.00000	 500.0	 1	    1.10000	    0.90000;
	3802	 1	 0.0	 0.0	 0.0	 0.0	 38	    1.00000	    0.00000	 500.0	 1	    1.10000	    0.90000;
	3803	 1	 0.0	 0.0	 0.0	 0.0	 38	    1.00000	    0.00000	 500.0	 1	    1.10000	    0.90000;
	3804	 1	 223.6404	 55.318	 0.0	 0.0	 38	    1.00000	    0.00000	 230.0	 1	    1.10000	    0.90000;
	3805	 1	 499.3888	 163.106	 0.0	 0.0	 38	    1.00000	    0.00000	 230.0	 1	    1.10000	    0.90000;
	3806	 1	 289.5858	 41.366	 0.0	 0.0	 38	    1.00000	    0.00000	 230.0	 1	    1.10000	    0.90000;
	3831	 2	 0.0	 0.0	 0.0	 0.0	 38	    1.00000	    0.00000	 20.0	 1	    1.10000	    0.90000;
	3835	 2	 0.0	 0.0	 0.0	 0.0	 38	    1.00000	    0.00000	 20.0	 1	    1.10000	    0.90000;
	3836	 2	 0.0	 0.0	 0.0	 0.0	 38	    1.00000	    0.00000	 20.0	 1	    1.10000	    0.90000;
	3891	 1	 0.0	 0.0	 0.0	 0.0	 38	    1.00000	    0.00000	 500.0	 1	    1.10000	    0.90000;
	3892	 1	 0.0	 0.0	 0.0	 0.0	 38	    1.00000	    0.00000	 500.0	 1	    1.10000	    0.90000;
	3893	 1	 0.0	 0.0	 0.0	 0.0	 38	    1.00000	    0.00000	 500.0	 1	    1.10000	    0.90000;
	3894	 1	 0.0	 0.0	 0.0	 0.0	 38	    1.00000	    0.00000	 500.0	 1	    1.10000	    0.90000;
	3895	 1	 0.0	 0.0	 0.0	 0.0	 38	    1.00000	    0.00000	 500.0	 1	    1.10000	    0.90000;
	3896	 1	 0.0	 0.0	 0.0	 0.0	 38	    1.00000	    0.00000	 500.0	 1	    1.10000	    0.90000;
	3897	 1	 0.0	 0.0	 0.0	 0.0	 38	    1.00000	    0.00000	 500.0	 1	    1.10000	    0.90000;
	3901	 1	 0.0	 0.0	 0.0	 0.0	 39	    1.00000	    0.00000	 500.0	 1	    1.10000	    0.90000;
	3902	 1	 152.9913	 38.248	 0.0	 0.0	 39	    1.00000	    0.00000	 500.0	 1	    1.10000	    0.90000;
	3903	 1	 213.2478	 30.269	 0.0	 0.0	 39	    1.00000	    0.00000	 500.0	 1	    1.10000	    0.90000;
	3904	 1	 0.0	 0.0	 0.0	 0.0	 39	    1.00000	    0.00000	 500.0	 1	    1.10000	    0.90000;
	3905	 1	 0.0	 0.0	 0.0	 0.0	 39	    1.00000	    0.00000	 500.0	 1	    1.10000	    0.90000;
	3906	 1	 0.0	 0.0	 0.0	 0.0	 39	    1.00000	    0.00000	 500.0	 1	    1.10000	    0.90000;
	3907	 1	 461.3573	 63.071	 0.0	 0.0	 39	    1.00000	    0.00000	 230.0	 1	    1.10000	    0.90000;
	3908	 1	 200.2788	 24.716	 0.0	 0.0	 39	    1.00000	    0.00000	 230.0	 1	    1.10000	    0.90000;
	3909	 1	 170.957	 39.785	 0.0	 0.0	 39	    1.00000	    0.00000	 230.0	 1	    1.10000	    0.90000;
	3910	 1	 241.8392	 34.44	 0.0	 0.0	 39	    1.00000	    0.00000	 230.0	 1	    1.10000	    0.90000;
	3911	 1	 233.1345	 47.114	 0.0	 0.0	 39	    1.00000	    0.00000	 230.0	 1	    1.10000	    0.90000;
	3912	 1	 174.5029	 -0.634	 0.0	 0.0	 39	    1.00000	    0.00000	 230.0	 1	    1.10000	    0.90000;
	3913	 1	 329.5484	 43.435	 0.0	 0.0	 39	    1.00000	    0.00000	 230.0	 1	    1.10000	    0.90000;
	3914	 1	 227.7536	 52.549	 0.0	 0.0	 39	    1.00000	    0.00000	 230.0	 1	    1.10000	    0.90000;
	3915	 1	 254.4589	 53.402	 0.0	 0.0	 39	    1.00000	    0.00000	 230.0	 1	    1.10000	    0.90000;
	3916	 1	 155.0024	 0.0	 0.0	 0.0	 39	    1.00000	    0.00000	 230.0	 1	    1.10000	    0.90000;
	3917	 1	 238.1882	 43.995	 0.0	 0.0	 39	    1.00000	    0.00000	 230.0	 1	    1.10000	    0.90000;
	3918	 1	 319.2809	 75.464	 0.0	 0.0	 39	    1.00000	    0.00000	 230.0	 1	    1.10000	    0.90000;
	3919	 1	 184.5093	 24.094	 0.0	 0.0	 39	    1.00000	    0.00000	 230.0	 1	    1.10000	    0.90000;
	3920	 1	 172.5018	 23.677	 0.0	 0.0	 39	    1.00000	    0.00000	 230.0	 1	    1.10000	    0.90000;
	3921	 1	 150.8902	 34.821	 0.0	 0.0	 39	    1.00000	    0.00000	 230.0	 1	    1.10000	    0.90000;
	3922	 1	 253.4454	 31.919	 0.0	 0.0	 39	    1.00000	    0.00000	 230.0	 1	    1.10000	    0.90000;
	3923	 1	 399.0618	 67.021	 0.0	 0.0	 39	    1.00000	    0.00000	 230.0	 1	    1.10000	    0.90000;
	3924	 1	 332.4879	 47.165	 0.0	 0.0	 39	    1.00000	    0.00000	 230.0	 1	    1.10000	    0.90000;
	3925	 1	 0.0	 0.0	 0.0	 0.0	 39	    1.00000	    0.00000	 115.0	 1	    1.10000	    0.90000;
	3926	 1	 267.3529	 16.668	 0.0	 0.0	 39	    1.00000	    0.00000	 115.0	 1	    1.10000	    0.90000;
	3931	 2	 0.0	 0.0	 0.0	 0.0	 39	    1.00000	    0.00000	 20.0	 1	    1.10000	    0.90000;
	3932	 2	 0.0	 0.0	 0.0	 0.0	 39	    1.00000	    0.00000	 20.0	 1	    1.10000	    0.90000;
	3933	 3	 0.0	 0.0	 0.0	 0.0	 39	    1.00000	    0.00000	 20.0	 1	    1.10000	    0.90000;
	4001	 1	 0.0	 0.0	 0.0	 0.0	 40	    1.00000	    0.00000	 500.0	 1	    1.10000	    0.90000;
	4002	 1	 168.6841	 21.998	 0.0	 0.0	 40	    1.00000	    0.00000	 500.0	 1	    1.10000	    0.90000;
	4003	 1	 0.0	 0.0	 0.0	 0.0	 40	    1.00000	    0.00000	 500.0	 1	    1.10000	    0.90000;
	4004	 1	 270.4505	 35.297	 0.0	 0.0	 40	    1.00000	    0.00000	 500.0	 1	    1.10000	    0.90000;
	4005	 1	 480.1144	 157.418	 0.0	 0.0	 40	    1.00000	    0.00000	 500.0	 1	    1.10000	    0.90000;
	4006	 1	 0.0	 0.0	 0.0	 0.0	 40	    1.00000	    0.00000	 500.0	 1	    1.10000	    0.90000;
	4007	 1	 0.0	 0.0	 0.0	 0.0	 40	    1.00000	    0.00000	 500.0	 1	    1.10000	    0.90000;
	4008	 1	 285.1446	 37.198	 0.0	 0.0	 40	    1.00000	    0.00000	 345.0	 1	    1.10000	    0.90000;
	4009	 1	 2208.7429	 431.395	 0.0	 0.0	 40	    1.00000	    0.00000	 230.0	 1	    1.10000	    0.90000;
	4010	 1	 3133.6101	 0.0	 0.0	 0.0	 90	    1.00000	    0.00000	 230.0	 1	    1.10000	    0.90000;
	4031	 2	 0.0	 0.0	 0.0	 0.0	 40	    1.00000	    0.00000	 20.0	 1	    1.10000	    0.90000;
	4035	 2	 0.0	 0.0	 0.0	 0.0	 40	    1.00000	    0.00000	 20.0	 1	    1.10000	    0.90000;
	4039	 2	 0.0	 0.0	 0.0	 0.0	 40	    1.00000	    0.00000	 20.0	 1	    1.10000	    0.90000;
	4090	 1	 0.0	 0.0	 0.0	 0.0	 40	    1.00000	    0.00000	 500.0	 1	    1.10000	    0.90000;
	4091	 1	 0.0	 0.0	 0.0	 0.0	 40	    1.00000	    0.00000	 500.0	 1	    1.10000	    0.90000;
	4092	 1	 0.0	 0.0	 0.0	 0.0	 40	    1.00000	    0.00000	 500.0	 1	    1.10000	    0.90000;
	4093	 1	 0.0	 0.0	 0.0	 0.0	 40	    1.00000	    0.00000	 500.0	 1	    1.10000	    0.90000;
	4094	 1	 0.0	 0.0	 0.0	 0.0	 40	    1.00000	    0.00000	 500.0	 1	    1.10000	    0.90000;
	4095	 1	 0.0	 0.0	 0.0	 0.0	 40	    1.00000	    0.00000	 500.0	 1	    1.10000	    0.90000;
	4096	 1	 0.0	 0.0	 0.0	 0.0	 40	    1.00000	    0.00000	 500.0	 1	    1.10000	    0.90000;
	4097	 1	 0.0	 0.0	 0.0	 0.0	 40	    1.00000	    0.00000	 500.0	 1	    1.10000	    0.90000;
	4101	 1	 995.0275	 129.784	 0.0	 0.0	 40	    1.00000	    0.00000	 500.0	 1	    1.10000	    0.90000;
	4102	 1	 480.649	 68.664	 0.0	 0.0	 40	    1.00000	    0.00000	 500.0	 1	    1.10000	    0.90000;
	4103	 1	 11.6269	 1.509	 0.0	 0.0	 40	    1.00000	    0.00000	 500.0	 1	    1.10000	    0.90000;
	4104	 1	 2527.7724	 329.74	 0.0	 0.0	 40	    1.00000	    0.00000	 230.0	 1	    1.10000	    0.90000;
	4131	 2	 0.0	 0.0	 0.0	 0.0	 40	    1.00000	    0.00000	 20.0	 1	    1.10000	    0.90000;
	4132	 2	 0.0	 0.0	 0.0	 0.0	 40	    1.00000	    0.00000	 20.0	 1	    1.10000	    0.90000;
	4201	 1	 5762.6589	 461.013	 0.0	 0.0	 40	    1.00000	    0.00000	 500.0	 1	    1.10000	    0.90000;
	4202	 1	 4558.2389	 594.626	 0.0	 0.0	 40	    1.00000	    0.00000	 500.0	 1	    1.10000	    0.90000;
	4203	 1	 4379.6262	 571.331	 0.0	 0.0	 40	    1.00000	    0.00000	 500.0	 1	    1.10000	    0.90000;
	4204	 1	 1014.5202	 132.34	 0.0	 0.0	 40	    1.00000	    0.00000	 500.0	 1	    1.10000	    0.90000;
	4231	 2	 0.0	 0.0	 0.0	 0.0	 40	    1.00000	    0.00000	 20.0	 1	    1.10000	    0.90000;
	4232	 2	 0.0	 0.0	 0.0	 0.0	 40	    1.00000	    0.00000	 20.0	 1	    1.10000	    0.90000;
	5001	 1	 7574.0522	 1721.375	 0.0	 0.0	 50	    1.00000	    0.00000	 500.0	 1	    1.10000	    0.90000;
	5002	 1	 9003.9839	 1174.359	 0.0	 0.0	 50	    1.00000	    0.00000	 500.0	 1	    1.10000	    0.90000;
	5003	 1	 615.2178	 80.253	 0.0	 0.0	 50	    1.00000	    0.00000	 230.0	 1	    1.10000	    0.90000;
	5004	 1	 0.0	 0.0	 0.0	 0.0	 50	    1.00000	    0.00000	 230.0	 1	    1.10000	    0.90000;
	5031	 2	 0.0	 0.0	 0.0	 0.0	 50	    1.00000	    0.00000	 20.0	 1	    1.10000	    0.90000;
	5032	 2	 0.0	 0.0	 0.0	 0.0	 50	    1.00000	    0.00000	 20.0	 1	    1.10000	    0.90000;
	6101	 1	 0.0	 0.0	 0.0	 0.0	 61	    1.00000	    0.00000	 500.0	 1	    1.10000	    0.90000;
	6102	 1	 1053.1441	 -345.277	 0.0	 0.0	 61	    1.00000	    0.00000	 345.0	 1	    1.10000	    0.90000;
	6103	 1	 391.888	 51.111	 0.0	 0.0	 61	    1.00000	    0.00000	 345.0	 1	    1.10000	    0.90000;
	6104	 1	 1694.958	 221.085	 0.0	 0.0	 61	    1.00000	    0.00000	 230.0	 1	    1.10000	    0.90000;
	6132	 2	 0.0	 0.0	 0.0	 0.0	 61	    1.00000	    0.00000	 20.0	 1	    1.10000	    0.90000;
	6201	 1	 205.82	 26.857	 0.0	 0.0	 60	    1.00000	    0.00000	 500.0	 1	    1.10000	    0.90000;
...
];

%% generator data
%	bus	Pg	Qg	Qmax	Qmin	Vg	mBase	status	Pmax	Pmin
mpc.gen = [
	1032	 1030.0	 0.0	 1030.0	 -1030.0	 1.0	 100.0	 1	 2060.0	 0.0; 0
	1032	 357.0	 0.0	 357.0	 -357.0	 1.0	 100.0	 1	 714.0	 0.0; 0
	1034	 2293.5	 0.0	 2294.0	 -2294.0	 1.0	 100.0	 1	 4587.0	 0.0; 0
	1034	 917.5	 0.0	 918.0	 -918.0	 1.0	 100.0	 1	 1835.0	 0.0; 0
	1034	 700.0	 0.0	 700.0	 -700.0	 1.0	 100.0	 1	 1400.0	 0.0; 0
	1131	 307.5	 0.0	 308.0	 -308.0	 1.0	 100.0	 1	 615.0	 0.0; 0
	1131	 1915.4	 0.0	 1916.0	 -1916.0	 1.0	 100.0	 1	 3830.8	 0.0; 0
	1131	 120.0	 0.0	 120.0	 -120.0	 1.0	 100.0	 1	 240.0	 0.0; 0
	1232	 1207.5	 0.0	 1208.0	 -1208.0	 1.0	 100.0	 1	 2415.0	 0.0; 0
	1232	 628.0	 0.0	 628.0	 -628.0	 1.0	 100.0	 1	 1256.0	 0.0; 0
	1331	 841.0	 0.0	 841.0	 -841.0	 1.0	 100.0	 1	 1682.0	 0.0; 0
	1331	 1219.0	 0.0	 1219.0	 -1219.0	 1.0	 100.0	 1	 2438.0	 0.0; 0
	1333	 302.5	 0.0	 303.0	 -303.0	 1.0	 100.0	 1	 605.0	 0.0; 0
	1333	 2745.5	 0.0	 2746.0	 -2746.0	 1.0	 100.0	 1	 5491.0	 0.0; 0
	1333	 37.5	 0.0	 38.0	 -38.0	 1.0	 100.0	 1	 75.0	 0.0; 0
	1431	 3559.35	 0.0	 3559.0	 -3559.0	 1.0	 100.0	 1	 7118.7	 0.0; 0
	1431	 2056.5	 0.0	 2057.0	 -2057.0	 1.0	 100.0	 1	 4113.0	 0.0; 0
	1431	 15.0	 0.0	 15.0	 -15.0	 1.0	 100.0	 1	 30.0	 0.0; 0
	2030	 1070.0	 0.0	 1070.0	 -1070.0	 1.0	 100.0	 1	 2140.0	 0.0; 0
	2030	 349.5	 0.0	 350.0	 -350.0	 1.0	 100.0	 1	 699.0	 0.0; 0
	2130	 200.0	 0.0	 200.0	 -200.0	 1.0	 100.0	 1	 400.0	 0.0; 0
	2130	 253.5	 0.0	 254.0	 -254.0	 1.0	 100.0	 1	 507.0	 0.0; 0
	2130	 250.0	 0.0	 250.0	 -250.0	 1.0	 100.0	 1	 500.0	 0.0; 0
	2130	 86.0	 0.0	 86.0	 -86.0	 1.0	 100.0	 1	 172.0	 0.0; 0
	2233	 353.0	 93.0	 304.0	 -118.0	 1.0	 100.0	 1	 706.0	 0.0; 0
	2233	 626.5	 215.0	 611.0	 -181.0	 1.0	 100.0	 1	 1253.0	 0.0; 0
	2233	 250.0	 25.5	 206.0	 -155.0	 1.0	 100.0	 1	 500.0	 0.0; 0
	2332	 559.0	 113.0	 590.0	 -364.0	 1.0	 100.0	 1	 1118.0	 0.0; 0
	2438	 781.5	 137.0	 728.0	 -454.0	 1.0	 100.0	 1	 1563.0	 0.0; 0
	2438	 1859.0	 367.0	 1902.0	 -1168.0	 1.0	 100.0	 1	 3718.0	 0.0; 0
	2438	 1401.5	 624.0	 2301.0	 -1053.0	 1.0	 100.0	 1	 2803.0	 0.0; 0
	2438	 670.0	 68.0	 659.0	 -523.0	 1.0	 100.0	 1	 1340.0	 0.0; 0
	2438	 473.0	 119.5	 436.0	 -197.0	 1.0	 100.0	 1	 946.0	 0.0; 0
	2438	 636.5	 4.0	 561.0	 -553.0	 1.0	 100.0	 1	 1273.0	 0.0; 0
	2438	 1983.5	 380.0	 1910.0	 -1150.0	 1.0	 100.0	 1	 3967.0	 0.0; 0
	2438	 -503.0	 0.25	 0.5	 0.0	 1.0	 100.0	 1	 0.0	 -1006.0; 0
	2533	 1116.0	 140.0	 1100.0	 -820.0	 1.0	 100.0	 1	 2232.0	 0.0; 0
	2630	 1346.0	 0.0	 1346.0	 -1346.0	 1.0	 100.0	 1	 2692.0	 0.0; 0
	2631	 159.0	 0.0	 159.0	 -159.0	 1.0	 100.0	 1	 318.0	 0.0; 0
	2634	 950.0	 0.0	 950.0	 -950.0	 1.0	 100.0	 1	 1900.0	 0.0; 0
	2637	 55.0	 0.0	 110.0	 -110.0	 1.0	 100.0	 1	 110.0	 0.0; 0
	2638	 0.0	 0.0	 100.0	 -100.0	 1.0	 100.0	 1	 1272.0	 -1272.0; 0
	3133	 21.0	 6.5	 42.0	 -29.0	 1.0	 100.0	 1	 42.0	 0.0; 0
	3133	 0.05	 0.0	 500.0	 -500.0	 1.0	 100.0	 1	 0.1	 0.0; 0
	3135	 184.5	 19.0	 239.0	 -201.0	 1.0	 100.0	 1	 369.0	 0.0; 0
	3135	 13.0	 7.5	 100.0	 -85.0	 1.0	 100.0	 1	 26.0	 0.0; 0
	3234	 60.5	 13.0	 101.0	 -75.0	 1.0	 100.0	 1	 121.0	 0.0; 0
	3234	 1314.0	 5.0	 1244.0	 -1234.0	 1.0	 100.0	 1	 2628.0	 0.0; 0
	3234	 353.5	 85.0	 382.0	 -212.0	 1.0	 100.0	 1	 707.0	 0.0; 0
	3234	 345.0	 10.0	 75.0	 -55.0	 1.0	 100.0	 1	 690.0	 0.0; 0
	3333	 345.0	 86.0	 398.0	 -226.0	 1.0	 100.0	 1	 690.0	 0.0; 0
	3333	 106.5	 29.5	 202.0	 -143.0	 1.0	 100.0	 1	 213.0	 0.0; 0
	3432	 147.0	 102.0	 510.0	 -306.0	 1.0	 100.0	 1	 1218.0	 -924.0; 0
	3433	 314.0	 28.0	 231.0	 -175.0	 1.0	 100.0	 1	 628.0	 0.0; 0
	3433	 1008.0	 188.5	 939.0	 -562.0	 1.0	 100.0	 1	 2016.0	 0.0; 0
	3531	 434.0	 202.5	 1004.0	 -599.0	 1.0	 100.0	 1	 868.0	 0.0; 0
	3531	 162.5	 36.0	 253.0	 -181.0	 1.0	 100.0	 1	 325.0	 0.0; 0
	3531	 15.0	 1.5	 13.0	 -10.0	 1.0	 100.0	 1	 30.0	 0.0; 0
	3631	 26.5	 3.0	 20.0	 -14.0	 1.0	 100.0	 1	 53.0	 0.0; 0
	3631	 71.5	 20.0	 74.0	 -34.0	 1.0	 100.0	 1	 143.0	 0.0; 0
	3731	 127.5	 39.5	 200.0	 -121.0	 1.0	 100.0	 1	 255.0	 0.0; 0
	3831	 1133.5	 97.5	 1175.0	 -980.0	 1.0	 100.0	 1	 2267.0	 0.0; 0
	3835	 690.5	 91.5	 662.0	 -479.0	 1.0	 100.0	 1	 1381.0	 0.0; 0
	3835	 -255.0	 0.25	 0.5	 0.0	 1.0	 100.0	 1	 0.0	 -510.0; 0
	3836	 510.5	 62.0	 476.0	 -352.0	 1.0	 100.0	 1	 1021.0	 0.0; 0
	3931	 157.0	 18.0	 151.0	 -115.0	 1.0	 100.0	 1	 314.0	 0.0; 0
	3931	 1848.0	 169.0	 1284.0	 -946.0	 1.0	 100.0	 1	 3696.0	 0.0; 0
	3932	 739.0	 325.0	 1150.0	 -500.0	 1.0	 100.0	 1	 1478.0	 0.0; 0
	3933	 295.0	 140.5	 363.0	 -82.0	 1.0	 100.0	 1	 590.0	 0.0; 0
	3933	 95.5	 11.0	 77.0	 -55.0	 1.0	 100.0	 1	 191.0	 0.0; 0
	3933	 657.0	 96.5	 500.0	 -307.0	 1.0	 100.0	 1	 1314.0	 0.0; 0
	3933	 1752.5	 107.5	 1256.0	 -1041.0	 1.0	 100.0	 1	 3505.0	 0.0; 0
	3933	 146.5	 1.0	 13.0	 -11.0	 1.0	 100.0	 1	 293.0	 0.0; 0
	3933	 -224.5	 0.25	 0.5	 0.0	 1.0	 100.0	 1	 0.0	 -449.0; 0
	4039	 102.0	 0.0	 102.0	 -102.0	 1.0	 100.0	 1	 204.0	 0.0; 0
	4039	 1459.0	 0.0	 1459.0	 -1459.0	 1.0	 100.0	 1	 2918.0	 0.0; 0
	4039	 187.5	 0.0	 188.0	 -188.0	 1.0	 100.0	 1	 375.0	 0.0; 0
	4031	 501.5	 0.0	 502.0	 -502.0	 1.0	 100.0	 1	 1003.0	 0.0; 0
	4031	 489.0	 0.0	 489.0	 -489.0	 1.0	 100.0	 1	 978.0	 0.0; 0
	4031	 37.5	 0.0	 38.0	 -38.0	 1.0	 100.0	 1	 75.0	 0.0; 0
	4031	 120.0	 0.0	 120.0	 -120.0	 1.0	 100.0	 1	 240.0	 0.0; 0
	4035	 255.0	 0.0	 255.0	 -255.0	 1.0	 100.0	 1	 510.0	 0.0; 0
	4035	 306.5	 0.0	 307.0	 -307.0	 1.0	 100.0	 1	 613.0	 0.0; 0
	4035	 1835.5	 0.0	 1836.0	 -1836.0	 1.0	 100.0	 1	 3671.0	 0.0; 0
	4035	 488.0	 0.0	 488.0	 -488.0	 1.0	 100.0	 1	 976.0	 0.0; 0
	4131	 6481.5	 0.0	 6482.0	 -6482.0	 1.0	 100.0	 1	 12963.0	 0.0; 0
	4131	 120.0	 0.0	 120.0	 -120.0	 1.0	 100.0	 1	 240.0	 0.0; 0
	4132	 1472.5	 0.0	 1473.0	 -1473.0	 1.0	 100.0	 1	 2945.0	 0.0; 0
	4132	 2846.5	 0.0	 2847.0	 -2847.0	 1.0	 100.0	 1	 5693.0	 0.0; 0
	4132	 580.0	 0.0	 580.0	 -580.0	 1.0	 100.0	 1	 1160.0	 0.0; 0
	4132	 230.5	 0.0	 231.0	 -231.0	 1.0	 100.0	 1	 461.0	 0.0; 0
	4132	 87.5	 0.0	 88.0	 -88.0	 1.0	 100.0	 1	 175.0	 0.0; 0
	4231	 728.0	 0.0	 728.0	 -728.0	 1.0	 100.0	 1	 1456.0	 0.0; 0
	4231	 658.5	 0.0	 659.0	 -659.0	 1.0	 100.0	 1	 1317.0	 0.0; 0
	4231	 1807.5	 0.0	 1808.0	 -1808.0	 1.0	 100.0	 1	 3615.0	 0.0; 0
	4231	 23.5	 0.0	 24.0	 -24.0	 1.0	 100.0	 1	 47.0	 0.0; 0
	4232	 592.0	 0.0	 592.0	 -592.0	 1.0	 100.0	 1	 1184.0	 0.0; 0
	4232	 286.5	 0.0	 287.0	 -287.0	 1.0	 100.0	 1	 573.0	 0.0; 0
	4232	 107.5	 0.0	 108.0	 -108.0	 1.0	 100.0	 1	 215.0	 0.0; 0
	5031	 605.0	 0.0	 605.0	 -605.0	 1.0	 100.0	 1	 1210.0	 0.0; 0
	5031	 4399.4	 0.0	 4399.0	 -4399.0	 1.0	 100.0	 1	 8798.8	 0.0; 0
	5032	 2977.0	 0.0	 2977.0	 -2977.0	 1.0	 100.0	 1	 5954.0	 0.0; 0
	5032	 2200.0	 0.0	 2200.0	 -2200.0	 1.0	 100.0	 1	 4400.0	 0.0; 0
	5032	 2205.1	 0.0	 2205.0	 -2205.0	 1.0	 100.0	 1	 4410.2	 0.0; 0
	5032	 54.0	 0.0	 54.0	 -54.0	 1.0	 100.0	 1	 108.0	 0.0; 0
	5032	 270.5	 0.0	 271.0	 -271.0	 1.0	 100.0	 1	 541.0	 0.0; 0
	6132	 7.5	 0.0	 8.0	 -8.0	 1.0	 100.0	 1	 15.0	 0.0; 0
	6132	 146.5	 0.0	 147.0	 -147.0	 1.0	 100.0	 1	 293.0	 0.0; 0
	6132	 1072.0	 0.0	 1072.0	 -1072.0	 1.0	 100.0	 1	 2144.0	 0.0; 0
	6132	 17.5	 0.0	 18.0	 -18.0	 1.0	 100.0	 1	 35.0	 0.0; 0
	6132	 118.0	 0.0	 118.0	 -118.0	 1.0	 100.0	 1	 236.0	 0.0; 0
	6231	 1255.5	 0.0	 1256.0	 -1256.0	 1.0	 100.0	 1	 2511.0	 0.0; 0
	6231	 70.0	 0.0	 70.0	 -70.0	 1.0	 100.0	 1	 140.0	 0.0; 0
	6235	 63.5	 0.0	 64.0	 -64.0	 1.0	 100.0	 1	 127.0	 0.0; 0
	6235	 346.5	 0.0	 347.0	 -347.0	 1.0	 100.0	 1	 693.0	 0.0; 0
	6235	 95.0	 0.0	 95.0	 -95.0	 1.0	 100.0	 1	 190.0	 0.0; 0
	6333	 1671.0	 0.0	 1671.0	 -1671.0	 1.0	 100.0	 1	 3342.0	 0.0; 0
	6333	 124.0	 0.0	 124.0	 -124.0	 1.0	 100.0	 1	 248.0	 0.0; 0
	6335	 967.5	 0.0	 968.0	 -968.0	 1.0	 100.0	 1	 1935.0	 0.0; 0
	6335	 329.5	 0.0	 330.0	 -330.0	 1.0	 100.0	 1	 659.0	 0.0; 0
	6335	 406.0	 0.0	 406.0	 -406.0	 1.0	 100.0	 1	 812.0	 0.0; 0
	6433	 282.5	 0.0	 283.0	 -283.0	 1.0	 100.0	 1	 565.0	 0.0; 0
	6433	 59.0	 0.0	 59.0	 -59.0	 1.0	 100.0	 1	 118.0	 0.0; 0
	6433	 536.0	 0.0	 536.0	 -536.0	 1.0	 100.0	 1	 1072.0	 0.0; 0
	6433	 11.5	 0.0	 12.0	 -12.0	 1.0	 100.0	 1	 23.0	 0.0; 0
	6433	 25.0	 0.0	 25.0	 -25.0	 1.0	 100.0	 1	 50.0	 0.0; 0
	6533	 1923.5	 0.0	 1924.0	 -1924.0	 1.0	 100.0	 1	 3847.0	 0.0; 0
	6533	 18.5	 0.0	 19.0	 -19.0	 1.0	 100.0	 1	 37.0	 0.0; 0
	6533	 880.0	 0.0	 880.0	 -880.0	 1.0	 100.0	 1	 1760.0	 0.0; 0
	6533	 19.5	 0.0	 20.0	 -20.0	 1.0	 100.0	 1	 39.0	 0.0; 0
	6533	 30.5	 0.0	 31.0	 -31.0	 1.0	 100.0	 1	 61.0	 0.0; 0
	7031	 1418.5	 0.0	 1419.0	 -1419.0	 1.0	 100.0	 1	 2837.0	 0.0; 0
	7031	 2092.0	 0.0	 2092.0	 -2092.0	 1.0	 100.0	 1	 4184.0	 0.0; 0
	7031	 0.0	 0.0	 167.0	 -167.0	 1.0	 100.0	 1	 333.0	 -333.0; 0
	7031	 298.5	 0.0	 299.0	 -299.0	 1.0	 100.0	 1	 597.0	 0.0; 0
	7031	 0.05	 0.0	 1000.0	 -1000.0	 1.0	 100.0	 1	 0.1	 0.0; 0
	7032	 826.0	 0.0	 826.0	 -826.0	 1.0	 100.0	 1	 1652.0	 0.0; 0
	7032	 489.0	 0.0	 489.0	 -489.0	 1.0	 100.0	 1	 978.0	 0.0; 0
	7032	 345.5	 0.0	 346.0	 -346.0	 1.0	 100.0	 1	 691.0	 0.0; 0
	7032	 0.0	 0.0	 23.0	 -23.0	 1.0	 100.0	 1	 200.0	 -200.0; 0
	8033	 786.0	 0.0	 786.0	 -786.0	 1.0	 100.0	 1	 1572.0	 0.0; 0
	8034	 1280.0	 0.0	 1280.0	 -1280.0	 1.0	 100.0	 1	 2560.0	 0.0; 0
	8034	 344.0	 0.0	 344.0	 -344.0	 1.0	 100.0	 1	 688.0	 0.0; 0
];

%% generator cost data
%	2	startup	shutdown	n	c(n-1)	...	c0
mpc.gencost = [
	2	 0.0	 0.0	 3	   0.000000	  23.552530	   0.000000;
	2	 0.0	 0.0	 3	   0.000000	  17.525740	   0.000000;
	2	 0.0	 0.0	 3	   0.000000	  50.253548	   0.000000;
	2	 0.0	 0.0	 3	   0.000000	   7.784540	   0.000000;
	2	 0.0	 0.0	 3	   0.000000	   7.164105	   0.000000;
	2	 0.0	 0.0	 3	   0.000000	  32.436958	   0.000000;
	2	 0.0	 0.0	 3	   0.000000	  31.156469	   0.000000;
	2	 0.0	 0.0	 3	   0.000000	  22.737499	   0.000000;
	2	 0.0	 0.0	 3	   0.000000	  19.952184	   0.000000;
	2	 0.0	 0.0	 3	   0.000000	  31.242137	   0.000000;
	2	 0.0	 0.0	 3	   0.000000	  24.807784	   0.000000;
	2	 0.0	 0.0	 3	   0.000000	  28.383968	   0.000000;
	2	 0.0	 0.0	 3	   0.000000	  34.755431	   0.000000;
	2	 0.0	 0.0	 3	   0.000000	   7.698014	   0.000000;
	2	 0.0	 0.0	 3	   0.000000	 105.404954	   0.000000;
	2	 0.0	 0.0	 3	   0.000000	  40.082606	   0.000000;
	2	 0.0	 0.0	 3	   0.000000	  25.630090	   0.000000;
	2	 0.0	 0.0	 3	   0.000000	 103.348768	   0.000000;
	2	 0.0	 0.0	 3	   0.000000	   6.769987	   0.000000;
	2	 0.0	 0.0	 3	   0.000000	  11.508310	   0.000000;
	2	 0.0	 0.0	 3	   0.000000	  37.856831	   0.000000;
	2	 0.0	 0.0	 3	   0.000000	  36.108116	   0.000000;
	2	 0.0	 0.0	 3	   0.000000	  49.860247	   0.000000;
	2	 0.0	 0.0	 3	   0.000000	  19.863282	   0.000000;
	2	 0.0	 0.0	 3	   0.000000	  28.216009	   0.000000;
	2	 0.0	 0.0	 3	   0.000000	  25.247027	   0.000000;
	2	 0.0	 0.0	 3	   0.000000	  39.435718	   0.000000;
	2	 0.0	 0.0	 3	   0.000000	  22.418634	   0.000000;
	2	 0.0	 0.0	 3	   0.000000	  25.395707	   0.000000;
	2	 0.0	 0.0	 3	   0.000000	 112.919983	   0.000000;
	2	 0.0	 0.0	 3	   0.000000	  29.447096	   0.000000;
	2	 0.0	 0.0	 3	   0.000000	  27.360187	   0.000000;
	2	 0.0	 0.0	 3	   0.000000	  43.054554	   0.000000;
	2	 0.0	 0.0	 3	   0.000000	  21.954880	   0.000000;
	2	 0.0	 0.0	 3	   0.000000	  21.935047	   0.000000;
	2	 0.0	 0.0	 3	   0.000000	   0.000000	   0.000000;
	2	 0.0	 0.0	 3	   0.000000	  32.738635	   0.000000;
	2	 0.0	 0.0	 3	   0.000000	  24.642891	   0.000000;
	2	 0.0	 0.0	 3	   0.000000	  17.386501	   0.000000;
	2	 0.0	 0.0	 3	   0.000000	  25.623984	   0.000000;
	2	 0.0	 0.0	 3	   0.000000	  36.008261	   0.000000;
	2	 0.0	 0.0	 3	   0.000000	  33.638878	   0.000000;
	2	 0.0	 0.0	 3	   0.000000	  60.295192	   0.000000;
	2	 0.0	 0.0	 3	   0.000000	 115.784252	   0.000000;
	2	 0.0	 0.0	 3	   0.000000	  19.747758	   0.000000;
	2	 0.0	 0.0	 3	   0.000000	 139.406671	   0.000000;
	2	 0.0	 0.0	 3	   0.000000	  40.626840	   0.000000;
	2	 0.0	 0.0	 3	   0.000000	  33.390411	   0.000000;
	2	 0.0	 0.0	 3	   0.000000	   9.116809	   0.000000;
	2	 0.0	 0.0	 3	   0.000000	  22.599236	   0.000000;
	2	 0.0	 0.0	 3	   0.000000	  36.557379	   0.000000;
	2	 0.0	 0.0	 3	   0.000000	  29.600547	   0.000000;
	2	 0.0	 0.0	 3	   0.000000	  23.127115	   0.000000;
	2	 0.0	 0.0	 3	   0.000000	  19.029025	   0.000000;
	2	 0.0	 0.0	 3	   0.000000	  26.628665	   0.000000;
	2	 0.0	 0.0	 3	   0.000000	  23.069170	   0.000000;
	2	 0.0	 0.0	 3	   0.000000	  19.755158	   0.000000;
	2	 0.0	 0.0	 3	   0.000000	 111.468783	   0.000000;
	2	 0.0	 0.0	 3	   0.000000	  37.364330	   0.000000;
	2	 0.0	 0.0	 3	   0.000000	  29.305594	   0.000000;
	2	 0.0	 0.0	 3	   0.000000	  43.487946	   0.000000;
	2	 0.0	 0.0	 3	   0.000000	  18.009089	   0.000000;
	2	 0.0	 0.0	 3	   0.000000	  27.186796	   0.000000;
	2	 0.0	 0.0	 3	   0.000000	   0.000000	   0.000000;
	2	 0.0	 0.0	 3	   0.000000	  39.855613	   0.000000;
	2	 0.0	 0.0	 3	   0.000000	  52.291471	   0.000000;
	2	 0.0	 0.0	 3	   0.000000	  32.821502	   0.000000;
	2	 0.0	 0.0	 3	   0.000000	  22.434142	   0.000000;
	2	 0.0	 0.0	 3	   0.000000	  35.060251	   0.000000;
	2	 0.0	 0.0	 3	   0.000000	  58.640953	   0.000000;
	2	 0.0	 0.0	 3	   0.000000	  40.111583	   0.000000;
	2	 0.0	 0.0	 3	   0.000000	  10.724076	   0.000000;
	2	 0.0	 0.0	 3	   0.000000	  29.604602	   0.000000;
	2	 0.0	 0.0	 3	   0.000000	   7.148098	   0.000000;
	2	 0.0	 0.0	 3	   0.000000	  14.120280	   0.000000;
	2	 0.0	 0.0	 3	   0.000000	  32.489744	   0.000000;
	2	 0.0	 0.0	 3	   0.000000	  32.920521	   0.000000;
	2	 0.0	 0.0	 3	   0.000000	  28.879314	   0.000000;
	2	 0.0	 0.0	 3	   0.000000	   7.795262	   0.000000;
	2	 0.0	 0.0	 3	   0.000000	  14.495790	   0.000000;
	2	 0.0	 0.0	 3	   0.000000	  33.529629	   0.000000;
	2	 0.0	 0.0	 3	   0.000000	  14.148633	   0.000000;
	2	 0.0	 0.0	 3	   0.000000	  22.360086	   0.000000;
	2	 0.0	 0.0	 3	   0.000000	  23.153973	   0.000000;
	2	 0.0	 0.0	 3	   0.000000	  32.076694	   0.000000;
	2	 0.0	 0.0	 3	   0.000000	  31.799668	   0.000000;
	2	 0.0	 0.0	 3	   0.000000	  48.375219	   0.000000;
	2	 0.0	 0.0	 3	   0.000000	  20.048511	   0.000000;
	2	 0.0	 0.0	 3	   0.000000	  13.581555	   0.000000;
	2	 0.0	 0.0	 3	   0.000000	  31.584790	   0.000000;
	2	 0.0	 0.0	 3	   0.000000	  45.195796	   0.000000;
	2	 0.0	 0.0	 3	   0.000000	  39.759127	   0.000000;
	2	 0.0	 0.0	 3	   0.000000	  14.530332	   0.000000;
	2	 0.0	 0.0	 3	   0.000000	  15.136833	   0.000000;
	2	 0.0	 0.0	 3	   0.000000	  42.828324	   0.000000;
	2	 0.0	 0.0	 3	   0.000000	  14.389570	   0.000000;
	2	 0.0	 0.0	 3	   0.000000	  38.966466	   0.000000;
	2	 0.0	 0.0	 3	   0.000000	  15.486578	   0.000000;
	2	 0.0	 0.0	 3	   0.000000	  41.492611	   0.000000;
	2	 0.0	 0.0	 3	   0.000000	  28.466295	   0.000000;
	2	 0.0	 0.0	 3	   0.000000	  27.255650	   0.000000;
	2	 0.0	 0.0	 3	   0.000000	  24.837547	   0.000000;
	2	 0.0	 0.0	 3	   0.000000	  28.019241	   0.000000;
	2	 0.0	 0.0	 3	   0.000000	  11.786936	   0.000000;
	2	 0.0	 0.0	 3	   0.000000	  29.985739	   0.000000;
	2	 0.0	 0.0	 3	   0.000000	  28.815976	   0.000000;
	2	 0.0	 0.0	 3	   0.000000	  37.698432	   0.000000;
	2	 0.0	 0.0	 3	   0.000000	  48.831293	   0.000000;
	2	 0.0	 0.0	 3	   0.000000	  32.211888	   0.000000;
	2	 0.0	 0.0	 3	   0.000000	 105.104656	   0.000000;
	2	 0.0	 0.0	 3	   0.000000	  37.879273	   0.000000;
	2	 0.0	 0.0	 3	   0.000000	  33.634935	   0.000000;
	2	 0.0	 0.0	 3	   0.000000	  30.107834	   0.000000;
	2	 0.0	 0.0	 3	   0.000000	  37.793235	   0.000000;
	2	 0.0	 0.0	 3	   0.000000	  31.239418	   0.000000;
	2	 0.0	 0.0	 3	   0.000000	  28.663274	   0.000000;
	2	 0.0	 0.0	 3	   0.000000	  24.405861	   0.000000;
	2	 0.0	 0.0	 3	   0.000000	  38.016670	   0.000000;
	2	 0.0	 0.0	 3	   0.000000	  32.247846	   0.000000;
	2	 0.0	 0.0	 3	   0.000000	  24.388960	   0.000000;
	2	 0.0	 0.0	 3	   0.000000	  11.816160	   0.000000;
	2	 0.0	 0.0	 3	   0.000000	  29.852868	   0.000000;
	2	 0.0	 0.0	 3	   0.000000	  28.252173	   0.000000;
	2	 0.0	 0.0	 3	   0.000000	 102.698216	   0.000000;
	2	 0.0	 0.0	 3	   0.000000	  23.707527	   0.000000;
	2	 0.0	 0.0	 3	   0.000000	  26.935133	   0.000000;
	2	 0.0	 0.0	 3	   0.000000	  19.266401	   0.000000;
	2	 0.0	 0.0	 3	   0.000000	  27.889540	   0.000000;
	2	 0.0	 0.0	 3	   0.000000	  20.456741	   0.000000;
	2	 0.0	 0.0	 3	   0.000000	  26.092954	   0.000000;
	2	 0.0	 0.0	 3	   0.000000	  37.210311	   0.000000;
	2	 0.0	 0.0	 3	   0.000000	  27.338561	   0.000000;
	2	 0.0	 0.0	 3	   0.000000	   7.157129	   0.000000;
	2	 0.0	 0.0	 3	   0.000000	  38.956112	   0.000000;
	2	 0.0	 0.0	 3	   0.000000	  40.642352	   0.000000;
	2	 0.0	 0.0	 3	   0.000000	  18.781578	   0.000000;
	2	 0.0	 0.0	 3	   0.000000	  43.330859	   0.000000;
	2	 0.0	 0.0	 3	   0.000000	  31.905335	   0.000000;
	2	 0.0	 0.0	 3	   0.000000	   9.594434	   0.000000;
	2	 0.0	 0.0	 3	   0.000000	  25.215165	   0.000000;
	2	 0.0	 0.0	 3	   0.000000	 114.365663	   0.000000;
	2	 0.0	 0.0	 3	   0.000000	  24.149150	   0.000000;
	2	 0.0	 0.0	 3	   0.000000	  24.948779	   0.000000;
];

%% branch data
%	fbus	tbus	r	x	b	rateA	rateB	rateC	ratio	angle	status	angmin	angmax
mpc.branch = [
	1001	 1201	 0.00177	 0.03169	 3.3446	 996.0	 996.0	 996.0	 0.0	 0.0	 1	 -16.1967411559	 16.1967411559;
	1001	 1202	 0.0108	 0.0965	 0.3296	 326.0	 326.0	 326.0	 0.0	 0.0	 1	 -16.1967411559	 16.1967411559;
	1002	 1004	 0.0005	 0.0053	 0.0882	 5934.0	 5934.0	 5934.0	 0.0	 0.0	 1	 -16.1967411559	 16.1967411559;
	1002	 1102	 0.00179	 0.01988	 2.576	 1583.0	 1583.0	 1583.0	 0.0	 0.0	 1	 -16.1967411559	 16.1967411559;
	1002	 1102	 0.00179	 0.01988	 2.576	 1583.0	 1583.0	 1583.0	 0.0	 0.0	 1	 -16.1967411559	 16.1967411559;
	1002	 6506	 0.0048	 0.0436	 0.7078	 721.0	 721.0	 721.0	 0.0	 0.0	 1	 -16.1967411559	 16.1967411559;
	1004	 7001	 0.03903	 0.27403	 2.0	 115.0	 115.0	 115.0	 0.0	 0.0	 1	 -16.1967411559	 16.1967411559;
	1004	 7002	 0.00977	 0.11	 2.0	 287.0	 287.0	 287.0	 0.0	 0.0	 1	 -16.1967411559	 16.1967411559;
	1101	 1401	 0.0028	 0.0211	 1.0194	 1485.0	 1485.0	 1485.0	 0.0	 0.0	 1	 -16.1967411559	 16.1967411559;
	1101	 1401	 0.0028	 0.0211	 1.0194	 1485.0	 1485.0	 1485.0	 0.0	 0.0	 1	 -16.1967411559	 16.1967411559;
	1201	 1202	 0.00077	 0.00536	 1.39842	 5834.0	 5834.0	 5834.0	 0.0	 0.0	 1	 -16.1967411559	 16.1967411559;
	1201	 1402	 0.00179	 0.02592	 3.3922	 1216.0	 1216.0	 1216.0	 0.0	 0.0	 1	 -16.1967411559	 16.1967411559;
	1201	 2901	 0.00207	 0.01369	 3.9516	 2282.0	 2282.0	 2282.0	 0.0	 0.0	 1	 -16.1967411559	 16.1967411559;
	1202	 1302	 0.0028	 0.0211	 1.0194	 1485.0	 1485.0	 1485.0	 0.0	 0.0	 1	 -16.1967411559	 16.1967411559;
	1202	 1402	 0.00241	 0.03489	 4.8656	 904.0	 904.0	 904.0	 0.0	 0.0	 1	 -16.1967411559	 16.1967411559;
	1301	 1302	 0.0028	 0.0211	 1.0194	 1485.0	 1485.0	 1485.0	 0.0	 0.0	 1	 -16.1967411559	 16.1967411559;
	1301	 1402	 0.0028	 0.0211	 1.0194	 1485.0	 1485.0	 1485.0	 0.0	 0.0	 1	 -16.1967411559	 16.1967411559;
	1301	 1402	 0.0062	 0.0673	 1.1156	 468.0	 468.0	 468.0	 0.0	 0.0	 1	 -16.1967411559	 16.1967411559;
	1301	 2603	 0.00179	 0.02524	 0.53546	 1249.0	 1249.0	 1249.0	 0.0	 0.0	 1	 -16.1967411559	 16.1967411559;
	1301	 2901	 0.0108	 0.0965	 0.3296	 326.0	 326.0	 326.0	 0.0	 0.0	 1	 -16.1967411559	 16.1967411559;
	1303	 6507	 0.00811	 0.1369	 1.1156	 231.0	 231.0	 231.0	 0.0	 0.0	 1	 -16.1967411559	 16.1967411559;
	1401	 1402	 0.0004	 0.0096	 0.9038	 3288.0	 3288.0	 3288.0	 0.0	 0.0	 1	 -16.1967411559	 16.1967411559;
	1401	 1402	 0.0004	 0.0096	 0.9038	 3288.0	 3288.0	 3288.0	 0.0	 0.0	 1	 -16.1967411559	 16.1967411559;
	1401	 2301	 0.00259	 0.02967	 2.153	 1061.0	 1061.0	 1061.0	 0.0	 0.0	 1	 -16.1967411559	 16.1967411559;
	1401	 2400	 0.00259	 0.02967	 2.153	 1061.0	 1061.0	 1061.0	 0.0	 0.0	 1	 -16.1967411559	 16.1967411559;
	1403	 2100	 0.00845	 0.07034	 0.15954	 446.0	 446.0	 446.0	 0.0	 0.0	 1	 -16.1967411559	 16.1967411559;
	2000	 2202	 0.00138	 0.05399	 0.15252	 585.0	 585.0	 585.0	 0.0	 0.0	 1	 -16.1967411559	 16.1967411559;
	2000	 2302	 0.00138	 0.05399	 0.15252	 585.0	 585.0	 585.0	 0.0	 0.0	 1	 -16.1967411559	 16.1967411559;
	2100	 2302	 0.00845	 0.07034	 0.15954	 446.0	 446.0	 446.0	 0.0	 0.0	 1	 -16.1967411559	 16.1967411559;
	2201	 2301	 0.00179	 0.02524	 2.153	 1249.0	 1249.0	 1249.0	 0.0	 0.0	 1	 -16.1967411559	 16.1967411559;
	2202	 2203	 0.00312	 0.02886	 0.15252	 1089.0	 1089.0	 1089.0	 0.0	 0.0	 1	 -16.1967411559	 16.1967411559;
	2202	 2203	 0.00312	 0.02886	 0.15252	 1089.0	 1089.0	 1089.0	 0.0	 0.0	 1	 -16.1967411559	 16.1967411559;
	2202	 2503	 0.00312	 0.02886	 0.15252	 1089.0	 1089.0	 1089.0	 0.0	 0.0	 1	 -16.1967411559	 16.1967411559;
	2203	 2503	 0.00312	 0.02886	 0.15252	 1089.0	 1089.0	 1089.0	 0.0	 0.0	 1	 -16.1967411559	 16.1967411559;
	2203	 2503	 0.00312	 0.02886	 0.15252	 1089.0	 1089.0	 1089.0	 0.0	 0.0	 1	 -16.1967411559	 16.1967411559;
	2400	 2403	 0.00042	 0.00905	 0.66794	 3487.0	 3487.0	 3487.0	 0.0	 0.0	 1	 -16.1967411559	 16.1967411559;
	2401	 2402	 0.00028	 0.00753	 0.51736	 4192.0	 4192.0	 4192.0	 0.0	 0.0	 1	 -16.1967411559	 16.1967411559;
	2401	 2402	 0.00035	 0.0075	 0.5536	 4208.0	 4208.0	 4208.0	 0.0	 0.0	 1	 -16.1967411559	 16.1967411559;
	2401	 2404	 0.00044	 0.01125	 0.8292	 2806.0	 2806.0	 2806.0	 0.0	 0.0	 1	 -16.1967411559	 16.1967411559;
	2401	 2404	 0.00044	 0.01125	 0.8292	 2806.0	 2806.0	 2806.0	 0.0	 0.0	 1	 -16.1967411559	 16.1967411559;
	2401	 2501	 0.0006	 0.0128	 0.9462	 2466.0	 2466.0	 2466.0	 0.0	 0.0	 1	 -16.1967411559	 16.1967411559;
	2401	 2603	 0.0002	 0.0041	 0.2962	 7696.0	 7696.0	 7696.0	 0.0	 0.0	 1	 -16.1967411559	 16.1967411559;
	2401	 2901	 0.00193	 0.02779	 4.6712	 1134.0	 1134.0	 1134.0	 0.0	 0.0	 1	 -16.1967411559	 16.1967411559;
	2401	 2902	 0.0019	 0.031	 4.1402	 1018.0	 1018.0	 1018.0	 0.0	 0.0	 1	 -16.1967411559	 16.1967411559;
	2402	 2501	 0.00021	 0.00457	 0.32336	 6905.0	 6905.0	 6905.0	 0.0	 0.0	 1	 -16.1967411559	 16.1967411559;
	2403	 2501	 0.0004	 0.0093	 0.6856	 3394.0	 3394.0	 3394.0	 0.0	 0.0	 1	 -16.1967411559	 16.1967411559;
	2404	 3893	 0.0	 -0.00935	 0.0	 3379.0	 3379.0	 3379.0	 0.0	 0.0	 1	 -16.1967411559	 16.1967411559;
	2404	 3895	 0.0	 -0.00935	 0.0	 3379.0	 3379.0	 3379.0	 0.0	 0.0	 1	 -16.1967411559	 16.1967411559;
	2404	 3897	 0.0	 -0.0084	 0.0	 3761.0	 3761.0	 3761.0	 0.0	 0.0	 1	 -16.1967411559	 16.1967411559;
	2405	 2406	 0.0014	 0.0264	 0.102	 1195.0	 1195.0	 1195.0	 0.0	 0.0	 1	 -16.1967411559	 16.1967411559;
	2405	 2410	 0.00065	 0.01187	 0.04672	 2658.0	 2658.0	 2658.0	 0.0	 0.0	 1	 -16.1967411559	 16.1967411559;
	2405	 2410	 0.00065	 0.01187	 0.04672	 2658.0	 2658.0	 2658.0	 0.0	 0.0	 1	 -16.1967411559	 16.1967411559;
	2406	 2408	 0.0019	 0.0258	 0.0984	 1222.0	 1222.0	 1222.0	 0.0	 0.0	 1	 -16.1967411559	 16.1967411559;
	2406	 2410	 0.00845	 0.07034	 0.15954	 446.0	 446.0	 446.0	 0.0	 0.0	 1	 -16.1967411559	 16.1967411559;
	2407	 2408	 0.0011	 0.0127	 0.048	 2478.0	 2478.0	 2478.0	 0.0	 0.0	 1	 -16.1967411559	 16.1967411559;
	2408	 2409	 0.00138	 0.05399	 0.15252	 585.0	 585.0	 585.0	 0.0	 0.0	 1	 -16.1967411559	 16.1967411559;
	2408	 2409	 0.00138	 0.05399	 0.15252	 585.0	 585.0	 585.0	 0.0	 0.0	 1	 -16.1967411559	 16.1967411559;
	2408	 2411	 0.0032	 0.0395	 0.144	 798.0	 798.0	 798.0	 0.0	 0.0	 1	 -16.1967411559	 16.1967411559;
	2408	 2502	 0.00312	 0.02886	 0.15252	 1089.0	 1089.0	 1089.0	 0.0	 0.0	 1	 -16.1967411559	 16.1967411559;
	2409	 2502	 0.00312	 0.02886	 0.15252	 1089.0	 1089.0	 1089.0	 0.0	 0.0	 1	 -16.1967411559	 16.1967411559;
	2409	 2503	 0.00312	 0.02886	 0.15252	 1089.0	 1089.0	 1089.0	 0.0	 0.0	 1	 -16.1967411559	 16.1967411559;
	2410	 2411	 0.00285	 0.03649	 0.12656	 864.0	 864.0	 864.0	 0.0	 0.0	 1	 -16.1967411559	 16.1967411559;
	2410	 2411	 0.00138	 0.03399	 0.11252	 929.0	 929.0	 929.0	 0.0	 0.0	 1	 -16.1967411559	 16.1967411559;
	2502	 2503	 0.00312	 0.02886	 0.15252	 1089.0	 1089.0	 1089.0	 0.0	 0.0	 1	 -16.1967411559	 16.1967411559;
	2502	 2503	 0.00312	 0.02886	 0.15252	 1089.0	 1089.0	 1089.0	 0.0	 0.0	 1	 -16.1967411559	 16.1967411559;
	2901	 2902	 0.00056	 0.01415	 1.0429	 2231.0	 2231.0	 2231.0	 0.0	 0.0	 1	 -16.1967411559	 16.1967411559;
	2600	 2602	 0.00082	 0.01668	 1.18802	 1892.0	 1892.0	 1892.0	 0.0	 0.0	 1	 -16.1967411559	 16.1967411559;
	2600	 2603	 0.0	 0.00159	 0.12002	 19867.0	 19867.0	 19867.0	 0.0	 0.0	 1	 -16.1967411559	 16.1967411559;
	2600	 2603	 0.0	 0.00159	 0.12002	 19867.0	 19867.0	 19867.0	 0.0	 0.0	 1	 -16.1967411559	 16.1967411559;
	2600	 2601	 0.00074	 0.01861	 1.40264	 1696.0	 1696.0	 1696.0	 0.0	 0.0	 1	 -16.1967411559	 16.1967411559;
	2601	 2603	 0.00083	 0.01884	 1.66668	 1675.0	 1675.0	 1675.0	 0.0	 0.0	 1	 -16.1967411559	 16.1967411559;
	2603	 2901	 0.00179	 0.02524	 0.53546	 1249.0	 1249.0	 1249.0	 0.0	 0.0	 1	 -16.1967411559	 16.1967411559;
	2604	 6404	 0.0108	 0.0965	 0.3296	 326.0	 326.0	 326.0	 0.0	 0.0	 1	 -16.1967411559	 16.1967411559;
	2604	 6504	 0.0018	 0.0245	 0.4392	 1286.0	 1286.0	 1286.0	 0.0	 0.0	 1	 -16.1967411559	 16.1967411559;
	2604	 6504	 0.0018	 0.0245	 0.4392	 1286.0	 1286.0	 1286.0	 0.0	 0.0	 1	 -16.1967411559	 16.1967411559;
	2605	 2607	 0.0107	 0.07905	 0.3667	 396.0	 396.0	 396.0	 0.0	 0.0	 1	 -16.1967411559	 16.1967411559;
	2606	 2607	 0.0107	 0.07905	 0.3667	 396.0	 396.0	 396.0	 0.0	 0.0	 1	 -16.1967411559	 16.1967411559;
	2608	 2611	 0.00221	 0.03346	 0.07338	 942.0	 942.0	 942.0	 0.0	 0.0	 1	 -16.1967411559	 16.1967411559;
	2608	 2612	 0.0029	 0.038	 0.0824	 829.0	 829.0	 829.0	 0.0	 0.0	 1	 -16.1967411559	 16.1967411559;
	2608	 2618	 0.00309	 0.04677	 0.1008	 674.0	 674.0	 674.0	 0.0	 0.0	 1	 -16.1967411559	 16.1967411559;
	2608	 2619	 0.00226	 0.03422	 0.07506	 922.0	 922.0	 922.0	 0.0	 0.0	 1	 -16.1967411559	 16.1967411559;
	2609	 2615	 0.00047	 0.00723	 0.01624	 4360.0	 4360.0	 4360.0	 0.0	 0.0	 1	 -16.1967411559	 16.1967411559;
	2609	 2617	 0.00035	 0.00536	 0.01204	 5881.0	 5881.0	 5881.0	 0.0	 0.0	 1	 -16.1967411559	 16.1967411559;
	2610	 2613	 0.0022	 0.03422	 0.07716	 922.0	 922.0	 922.0	 0.0	 0.0	 1	 -16.1967411559	 16.1967411559;
	2610	 2613	 0.00238	 0.03669	 0.08284	 860.0	 860.0	 860.0	 0.0	 0.0	 1	 -16.1967411559	 16.1967411559;
	2610	 2616	 0.00201	 0.03074	 0.06886	 1026.0	 1026.0	 1026.0	 0.0	 0.0	 1	 -16.1967411559	 16.1967411559;
	2610	 2617	 0.00281	 0.04296	 0.09648	 734.0	 734.0	 734.0	 0.0	 0.0	 1	 -16.1967411559	 16.1967411559;
	2611	 2612	 0.00029	 0.00434	 0.0095	 7262.0	 7262.0	 7262.0	 0.0	 0.0	 1	 -16.1967411559	 16.1967411559;
	2612	 2615	 0.00229	 0.01583	 0.0306	 1975.0	 1975.0	 1975.0	 0.0	 0.0	 1	 -16.1967411559	 16.1967411559;
	2612	 2615	 0.00229	 0.01583	 0.0306	 1975.0	 1975.0	 1975.0	 0.0	 0.0	 1	 -16.1967411559	 16.1967411559;
	2612	 2618	 0.00141	 0.00967	 0.0194	 3233.0	 3233.0	 3233.0	 0.0	 0.0	 1	 -16.1967411559	 16.1967411559;
	2612	 2618	 0.00141	 0.00967	 0.0194	 3233.0	 3233.0	 3233.0	 0.0	 0.0	 1	 -16.1967411559	 16.1967411559;
	2612	 2618	 0.00161	 0.00971	 0.01928	 3210.0	 3210.0	 3210.0	 0.0	 0.0	 1	 -16.1967411559	 16.1967411559;
	2612	 2618	 0.00161	 0.00971	 0.01928	 3210.0	 3210.0	 3210.0	 0.0	 0.0	 1	 -16.1967411559	 16.1967411559;
	2612	 2619	 0.00027	 0.00393	 0.00918	 8019.0	 8019.0	 8019.0	 0.0	 0.0	 1	 -16.1967411559	 16.1967411559;
	2612	 2619	 0.00027	 0.00393	 0.00918	 8019.0	 8019.0	 8019.0	 0.0	 0.0	 1	 -16.1967411559	 16.1967411559;
	2612	 2619	 0.00027	 0.00393	 0.00918	 8019.0	 8019.0	 8019.0	 0.0	 0.0	 1	 -16.1967411559	 16.1967411559;
	2612	 2620	 0.00138	 0.01116	 0.0247	 2810.0	 2810.0	 2810.0	 0.0	 0.0	 1	 -16.1967411559	 16.1967411559;
	2612	 2620	 0.00138	 0.01116	 0.0247	 2810.0	 2810.0	 2810.0	 0.0	 0.0	 1	 -16.1967411559	 16.1967411559;
	2613	 2616	 0.00037	 0.00366	 0.0083	 8587.0	 8587.0	 8587.0	 0.0	 0.0	 1	 -16.1967411559	 16.1967411559;
	2613	 2617	 0.00055	 0.00586	 0.01246	 5367.0	 5367.0	 5367.0	 0.0	 0.0	 1	 -16.1967411559	 16.1967411559;
	2614	 2616	 0.00073	 0.01025	 0.02558	 3074.0	 3074.0	 3074.0	 0.0	 0.0	 1	 -16.1967411559	 16.1967411559;
	2614	 2616	 0.00073	 0.01025	 0.02558	 3074.0	 3074.0	 3074.0	 0.0	 0.0	 1	 -16.1967411559	 16.1967411559;
	2615	 2617	 0.00119	 0.01244	 0.02798	 2528.0	 2528.0	 2528.0	 0.0	 0.0	 1	 -16.1967411559	 16.1967411559;
	2615	 2617	 0.00119	 0.01244	 0.02798	 2528.0	 2528.0	 2528.0	 0.0	 0.0	 1	 -16.1967411559	 16.1967411559;
	2615	 2620	 0.00128	 0.00979	 0.0212	 3200.0	 3200.0	 3200.0	 0.0	 0.0	 1	 -16.1967411559	 16.1967411559;
	2616	 2617	 0.0011	 0.01189	 0.02514	 2646.0	 2646.0	 2646.0	 0.0	 0.0	 1	 -16.1967411559	 16.1967411559;
	3101	 3102	 0.0011	 0.0127	 0.048	 2478.0	 2478.0	 2478.0	 0.0	 0.0	 1	 -16.1967411559	 16.1967411559;
	3101	 3102	 0.0011	 0.0127	 0.048	 2478.0	 2478.0	 2478.0	 0.0	 0.0	 1	 -16.1967411559	 16.1967411559;
	3102	 3103	 0.0011	 0.0127	 0.048	 2478.0	 2478.0	 2478.0	 0.0	 0.0	 1	 -16.1967411559	 16.1967411559;
	3102	 3103	 0.0011	 0.0127	 0.048	 2478.0	 2478.0	 2478.0	 0.0	 0.0	 1	 -16.1967411559	 16.1967411559;
	3102	 3103	 0.0011	 0.0127	 0.048	 2478.0	 2478.0	 2478.0	 0.0	 0.0	 1	 -16.1967411559	 16.1967411559;
	3102	 3302	 0.0011	 0.0127	 0.048	 2478.0	 2478.0	 2478.0	 0.0	 0.0	 1	 -16.1967411559	 16.1967411559;
	3103	 3204	 0.0011	 0.0127	 0.048	 2478.0	 2478.0	 2478.0	 0.0	 0.0	 1	 -16.1967411559	 16.1967411559;
	3103	 3204	 0.0011	 0.0127	 0.048	 2478.0	 2478.0	 2478.0	 0.0	 0.0	 1	 -16.1967411559	 16.1967411559;
	3103	 3305	 0.0011	 0.0127	 0.048	 2478.0	 2478.0	 2478.0	 0.0	 0.0	 1	 -16.1967411559	 16.1967411559;
	3103	 3305	 0.0011	 0.0127	 0.048	 2478.0	 2478.0	 2478.0	 0.0	 0.0	 1	 -16.1967411559	 16.1967411559;
	3104	 3105	 0.00312	 0.02886	 0.15252	 1089.0	 1089.0	 1089.0	 0.0	 0.0	 1	 -16.1967411559	 16.1967411559;
	3201	 3202	 0.0011	 0.0127	 0.048	 2478.0	 2478.0	 2478.0	 0.0	 0.0	 1	 -16.1967411559	 16.1967411559;
	3201	 3202	 0.0011	 0.0127	 0.048	 2478.0	 2478.0	 2478.0	 0.0	 0.0	 1	 -16.1967411559	 16.1967411559;
	3201	 3203	 0.0011	 0.0127	 0.048	 2478.0	 2478.0	 2478.0	 0.0	 0.0	 1	 -16.1967411559	 16.1967411559;
	3201	 3203	 0.0011	 0.0127	 0.048	 2478.0	 2478.0	 2478.0	 0.0	 0.0	 1	 -16.1967411559	 16.1967411559;
	3201	 3923	 0.00312	 0.02886	 0.15252	 1089.0	 1089.0	 1089.0	 0.0	 0.0	 1	 -16.1967411559	 16.1967411559;
	3201	 3923	 0.00312	 0.02886	 0.15252	 1089.0	 1089.0	 1089.0	 0.0	 0.0	 1	 -16.1967411559	 16.1967411559;
	3201	 3924	 0.0011	 0.0127	 0.048	 2478.0	 2478.0	 2478.0	 0.0	 0.0	 1	 -16.1967411559	 16.1967411559;
	3201	 3924	 0.0011	 0.0127	 0.048	 2478.0	 2478.0	 2478.0	 0.0	 0.0	 1	 -16.1967411559	 16.1967411559;
	3202	 3203	 0.0011	 0.0127	 0.048	 2478.0	 2478.0	 2478.0	 0.0	 0.0	 1	 -16.1967411559	 16.1967411559;
	3202	 3203	 0.00312	 0.02886	 0.15252	 1089.0	 1089.0	 1089.0	 0.0	 0.0	 1	 -16.1967411559	 16.1967411559;
	3202	 3204	 0.0011	 0.0127	 0.048	 2478.0	 2478.0	 2478.0	 0.0	 0.0	 1	 -16.1967411559	 16.1967411559;
	3202	 3205	 0.0011	 0.0127	 0.048	 2478.0	 2478.0	 2478.0	 0.0	 0.0	 1	 -16.1967411559	 16.1967411559;
	3202	 3924	 0.00312	 0.02886	 0.15252	 1089.0	 1089.0	 1089.0	 0.0	 0.0	 1	 -16.1967411559	 16.1967411559;
	3202	 3924	 0.00312	 0.02886	 0.15252	 1089.0	 1089.0	 1089.0	 0.0	 0.0	 1	 -16.1967411559	 16.1967411559;
	3203	 3204	 0.0011	 0.0127	 0.048	 2478.0	 2478.0	 2478.0	 0.0	 0.0	 1	 -16.1967411559	 16.1967411559;
	3203	 3303	 0.0011	 0.0127	 0.048	 2478.0	 2478.0	 2478.0	 0.0	 0.0	 1	 -16.1967411559	 16.1967411559;
	3203	 3303	 0.00312	 0.02886	 0.15252	 1089.0	 1089.0	 1089.0	 0.0	 0.0	 1	 -16.1967411559	 16.1967411559;
	3203	 3305	 0.0011	 0.0127	 0.048	 2478.0	 2478.0	 2478.0	 0.0	 0.0	 1	 -16.1967411559	 16.1967411559;
	3203	 3923	 0.00312	 0.02886	 0.15252	 1089.0	 1089.0	 1089.0	 0.0	 0.0	 1	 -16.1967411559	 16.1967411559;
	3203	 3923	 0.00312	 0.02886	 0.15252	 1089.0	 1089.0	 1089.0	 0.0	 0.0	 1	 -16.1967411559	 16.1967411559;
	3204	 3205	 0.0011	 0.0127	 0.048	 2478.0	 2478.0	 2478.0	 0.0	 0.0	 1	 -16.1967411559	 16.1967411559;
	3204	 3205	 0.0011	 0.0127	 0.048	 2478.0	 2478.0	 2478.0	 0.0	 0.0	 1	 -16.1967411559	 16.1967411559;
	3204	 3923	 0.00312	 0.02886	 0.15252	 1089.0	 1089.0	 1089.0	 0.0	 0.0	 1	 -16.1967411559	 16.1967411559;
	3204	 3923	 0.00312	 0.02886	 0.15252	 1089.0	 1089.0	 1089.0	 0.0	 0.0	 1	 -16.1967411559	 16.1967411559;
	3205	 3914	 0.00312	 0.02886	 0.15252	 1089.0	 1089.0	 1089.0	 0.0	 0.0	 1	 -16.1967411559	 16.1967411559;
	3205	 3915	 0.00312	 0.02886	 0.15252	 1089.0	 1089.0	 1089.0	 0.0	 0.0	 1	 -16.1967411559	 16.1967411559;
	3301	 3902	 0.00053	 0.01297	 0.0	 2434.0	 2434.0	 2434.0	 0.0	 0.0	 1	 -16.1967411559	 16.1967411559;
	3301	 3903	 1e-05	 -0.00755	 0.0	 4184.0	 4184.0	 4184.0	 0.0	 0.0	 1	 -16.1967411559	 16.1967411559;
	3302	 3304	 0.0011	 0.0127	 0.048	 2478.0	 2478.0	 2478.0	 0.0	 0.0	 1	 -16.1967411559	 16.1967411559;
	3302	 3304	 0.0011	 0.0127	 0.048	 2478.0	 2478.0	 2478.0	 0.0	 0.0	 1	 -16.1967411559	 16.1967411559;
	3303	 3304	 0.0011	 0.0127	 0.048	 2478.0	 2478.0	 2478.0	 0.0	 0.0	 1	 -16.1967411559	 16.1967411559;
	3303	 3304	 0.0011	 0.0127	 0.048	 2478.0	 2478.0	 2478.0	 0.0	 0.0	 1	 -16.1967411559	 16.1967411559;
	3303	 3304	 0.0011	 0.0127	 0.048	 2478.0	 2478.0	 2478.0	 0.0	 0.0	 1	 -16.1967411559	 16.1967411559;
	3303	 3918	 0.00312	 0.02886	 0.15252	 1089.0	 1089.0	 1089.0	 0.0	 0.0	 1	 -16.1967411559	 16.1967411559;
	3303	 3918	 0.00312	 0.02886	 0.15252	 1089.0	 1089.0	 1089.0	 0.0	 0.0	 1	 -16.1967411559	 16.1967411559;
	3305	 3923	 0.00312	 0.02886	 0.15252	 1089.0	 1089.0	 1089.0	 0.0	 0.0	 1	 -16.1967411559	 16.1967411559;
	3401	 3402	 0.00312	 0.02886	 0.15252	 1089.0	 1089.0	 1089.0	 0.0	 0.0	 1	 -16.1967411559	 16.1967411559;
	3401	 3402	 0.00312	 0.02886	 0.15252	 1089.0	 1089.0	 1089.0	 0.0	 0.0	 1	 -16.1967411559	 16.1967411559;
	3401	 3404	 0.00312	 0.02886	 0.15252	 1089.0	 1089.0	 1089.0	 0.0	 0.0	 1	 -16.1967411559	 16.1967411559;
	3401	 3405	 0.00312	 0.02886	 0.15252	 1089.0	 1089.0	 1089.0	 0.0	 0.0	 1	 -16.1967411559	 16.1967411559;
	3401	 3405	 0.00312	 0.02886	 0.15252	 1089.0	 1089.0	 1089.0	 0.0	 0.0	 1	 -16.1967411559	 16.1967411559;
	3401	 3804	 0.00312	 0.02886	 0.15252	 1089.0	 1089.0	 1089.0	 0.0	 0.0	 1	 -16.1967411559	 16.1967411559;
	3403	 3404	 0.00312	 0.02886	 0.15252	 1089.0	 1089.0	 1089.0	 0.0	 0.0	 1	 -16.1967411559	 16.1967411559;
	3403	 3804	 0.00312	 0.02886	 0.15252	 1089.0	 1089.0	 1089.0	 0.0	 0.0	 1	 -16.1967411559	 16.1967411559;
	3404	 3804	 0.00312	 0.02886	 0.15252	 1089.0	 1089.0	 1089.0	 0.0	 0.0	 1	 -16.1967411559	 16.1967411559;
	3404	 3804	 0.00312	 0.02886	 0.15252	 1089.0	 1089.0	 1089.0	 0.0	 0.0	 1	 -16.1967411559	 16.1967411559;
	3404	 3917	 0.00312	 0.02886	 0.15252	 1089.0	 1089.0	 1089.0	 0.0	 0.0	 1	 -16.1967411559	 16.1967411559;
	3404	 3918	 0.00312	 0.02886	 0.15252	 1089.0	 1089.0	 1089.0	 0.0	 0.0	 1	 -16.1967411559	 16.1967411559;
	3405	 3907	 0.00312	 0.02886	 0.15252	 1089.0	 1089.0	 1089.0	 0.0	 0.0	 1	 -16.1967411559	 16.1967411559;
	3405	 3907	 0.00312	 0.02886	 0.15252	 1089.0	 1089.0	 1089.0	 0.0	 0.0	 1	 -16.1967411559	 16.1967411559;
	3501	 3914	 0.00312	 0.02886	 0.15252	 1089.0	 1089.0	 1089.0	 0.0	 0.0	 1	 -16.1967411559	 16.1967411559;
	3501	 3915	 0.00312	 0.02886	 0.15252	 1089.0	 1089.0	 1089.0	 0.0	 0.0	 1	 -16.1967411559	 16.1967411559;
	3601	 3925	 0.00312	 0.02886	 0.15252	 1089.0	 1089.0	 1089.0	 0.0	 0.0	 1	 -16.1967411559	 16.1967411559;
	3701	 3926	 0.00312	 0.02886	 0.15252	 1089.0	 1089.0	 1089.0	 0.0	 0.0	 1	 -16.1967411559	 16.1967411559;
	3701	 3926	 0.00312	 0.02886	 0.15252	 1089.0	 1089.0	 1089.0	 0.0	 0.0	 1	 -16.1967411559	 16.1967411559;
	3801	 3802	 0.00079	 0.01937	 1.3285	 1630.0	 1630.0	 1630.0	 0.0	 0.0	 1	 -16.1967411559	 16.1967411559;
	3801	 3803	 0.00087	 0.02087	 1.4571	 1513.0	 1513.0	 1513.0	 0.0	 0.0	 1	 -16.1967411559	 16.1967411559;
	3801	 3803	 0.00087	 0.02087	 1.4571	 1513.0	 1513.0	 1513.0	 0.0	 0.0	 1	 -16.1967411559	 16.1967411559;
	3802	 3891	 0.00072	 0.016	 1.0879	 1973.0	 1973.0	 1973.0	 0.0	 0.0	 1	 -16.1967411559	 16.1967411559;
	3802	 3901	 0.00083	 0.01985	 0.0	 1590.0	 1590.0	 1590.0	 0.0	 0.0	 1	 -16.1967411559	 16.1967411559;
	3803	 3891	 2e-05	 -0.00998	 0.0	 3166.0	 3166.0	 3166.0	 0.0	 0.0	 1	 -16.1967411559	 16.1967411559;
	3803	 3892	 0.0	 -0.00935	 0.0	 3379.0	 3379.0	 3379.0	 0.0	 0.0	 1	 -16.1967411559	 16.1967411559;
	3803	 3894	 0.0	 -0.00944	 0.0	 3347.0	 3347.0	 3347.0	 0.0	 0.0	 1	 -16.1967411559	 16.1967411559;
	3803	 3896	 0.0	 -0.00935	 0.0	 3379.0	 3379.0	 3379.0	 0.0	 0.0	 1	 -16.1967411559	 16.1967411559;
	3803	 3901	 0.00153	 0.0147	 0.0	 2138.0	 2138.0	 2138.0	 0.0	 0.0	 1	 -16.1967411559	 16.1967411559;
	3804	 3806	 0.00312	 0.02886	 0.15252	 1089.0	 1089.0	 1089.0	 0.0	 0.0	 1	 -16.1967411559	 16.1967411559;
	3805	 3806	 0.00312	 0.02886	 0.15252	 1089.0	 1089.0	 1089.0	 0.0	 0.0	 1	 -16.1967411559	 16.1967411559;
	3892	 3893	 0.00123	 0.02659	 1.98702	 1187.0	 1187.0	 1187.0	 0.0	 0.0	 1	 -16.1967411559	 16.1967411559;
	3894	 3895	 0.00123	 0.02662	 1.9888	 1186.0	 1186.0	 1186.0	 0.0	 0.0	 1	 -16.1967411559	 16.1967411559;
	3896	 3897	 0.00112	 0.02517	 1.83586	 1254.0	 1254.0	 1254.0	 0.0	 0.0	 1	 -16.1967411559	 16.1967411559;
	3901	 3902	 0.00053	 0.01297	 0.0	 2434.0	 2434.0	 2434.0	 0.0	 0.0	 1	 -16.1967411559	 16.1967411559;
	3901	 3903	 0.00093	 0.03644	 1.3895	 867.0	 867.0	 867.0	 0.0	 0.0	 1	 -16.1967411559	 16.1967411559;
	3901	 8002	 2e-05	 -0.01331	 0.0	 2374.0	 2374.0	 2374.0	 0.0	 0.0	 1	 -16.1967411559	 16.1967411559;
	3903	 3904	 1e-05	 -0.01098	 0.0	 2877.0	 2877.0	 2877.0	 0.0	 0.0	 1	 -16.1967411559	 16.1967411559;
	3903	 3905	 0.00098	 0.01035	 0.0	 3039.0	 3039.0	 3039.0	 0.0	 0.0	 1	 -16.1967411559	 16.1967411559;
	3903	 8002	 0.00165	 0.05719	 2.4774	 553.0	 553.0	 553.0	 0.0	 0.0	 1	 -16.1967411559	 16.1967411559;
	3904	 3905	 0.0016	 0.01229	 0.0	 2549.0	 2549.0	 2549.0	 0.0	 0.0	 1	 -16.1967411559	 16.1967411559;
	3905	 3906	 0.00072	 0.00346	 0.0	 8938.0	 8938.0	 8938.0	 0.0	 0.0	 1	 -16.1967411559	 16.1967411559;
	3906	 4001	 0.00053	 0.00456	 0.0	 6881.0	 6881.0	 6881.0	 0.0	 0.0	 1	 -16.1967411559	 16.1967411559;
	3906	 4001	 0.00053	 0.00456	 0.0	 6881.0	 6881.0	 6881.0	 0.0	 0.0	 1	 -16.1967411559	 16.1967411559;
	3907	 3908	 0.00312	 0.02886	 0.15252	 1089.0	 1089.0	 1089.0	 0.0	 0.0	 1	 -16.1967411559	 16.1967411559;
	3907	 3923	 0.00312	 0.02886	 0.15252	 1089.0	 1089.0	 1089.0	 0.0	 0.0	 1	 -16.1967411559	 16.1967411559;
...
];

% INFO    : === Translation Options ===
% INFO    : Phase Angle Bound:           16.1967411559 (deg.)
% INFO    : 
% INFO    : === Generator Bounds Update Notes ===
% INFO    : 
% INFO    : === Base KV Replacement Notes ===
% INFO    : 
% INFO    : === Transformer Setting Replacement Notes ===
% INFO    : 
% INFO    : === Line Capacity Monotonicity Notes ===
% INFO    : 
% INFO    : === Writing Matpower Case File Notes ===
% WARNING : No comments found in comments.txt for case named pglib_opf_case240_pserc__sad
